<?xml version="1.0" encoding="UTF-8"?>

<!-- generated on 2025-06-10 15:57:07 by Eclipse SUMO netconvert Version 1.21.0
<netconvertConfiguration xmlns:xsi="http://www.w3.org/2001/XMLSchema-instance" xsi:noNamespaceSchemaLocation="http://sumo.dlr.de/xsd/netconvertConfiguration.xsd">

    <input>
        <node-files value="sumo-config/weiche.nod.xml"/>
        <edge-files value="sumo-config/weiche.edg.xml"/>
        <connection-files value="sumo-config/weiche.con.xml"/>
    </input>

    <output>
        <output-file value="sumo-config/weiche.net.xml"/>
    </output>

    <junctions>
        <no-internal-links value="true"/>
        <junctions.minimal-shape value="true"/>
    </junctions>

    <railway>
        <railway.topology.repair value="true"/>
        <railway.topology.repair.connect-straight value="true"/>
        <railway.topology.all-bidi value="false"/>
    </railway>

</netconvertConfiguration>
-->

<net version="1.20" junctionCornerDetail="5" limitTurnSpeed="5.50" junctionsMinimalShape="1" xmlns:xsi="http://www.w3.org/2001/XMLSchema-instance" xsi:noNamespaceSchemaLocation="http://sumo.dlr.de/xsd/net_file.xsd">

    <location netOffset="0.00,0.00" convBoundary="0.00,0.00,150.00,50.00" origBoundary="0.00,0.00,150.00,50.00" projParameter="!"/>

    <edge id="0014c-0" from="2c928" to="sa" priority="-1" spreadType="center" bidi="0014c-0-re">
        <lane id="0014c-0_0" index="0" allow="rail rail_electric" speed="110.00" length="1.00" shape="0.00,0.00 1.00,0.00"/>
    </edge>
    <edge id="0014c-0-re" from="sa" to="2c928" priority="-1" spreadType="center" bidi="0014c-0">
        <lane id="0014c-0-re_0" index="0" allow="rail rail_electric" speed="110.00" length="1.00" shape="1.00,0.00 0.00,0.00"/>
    </edge>
    <edge id="0014c-1" from="sa" to="23e29" priority="-1" spreadType="center" bidi="0014c-1-re">
        <lane id="0014c-1_0" index="0" allow="rail rail_electric" speed="110.00" length="49.00" shape="1.00,0.00 50.00,0.00"/>
    </edge>
    <edge id="0014c-1-re" from="23e29" to="sa" priority="-1" spreadType="center" bidi="0014c-1">
        <lane id="0014c-1-re_0" index="0" allow="rail rail_electric" speed="110.00" length="49.00" shape="50.00,0.00 1.00,0.00"/>
    </edge>
    <edge id="1555f-0" from="23e29" to="sc" priority="-1" spreadType="center" bidi="1555f-0-re">
        <lane id="1555f-0_0" index="0" allow="rail rail_electric" speed="110.00" length="1.00" shape="50.47,0.47 50.71,0.71"/>
    </edge>
    <edge id="1555f-0-re" from="sc" to="23e29" priority="-1" spreadType="center" bidi="1555f-0">
        <lane id="1555f-0-re_0" index="0" allow="rail rail_electric" speed="110.00" length="1.00" shape="50.71,0.71 50.47,0.47"/>
    </edge>
    <edge id="1555f-1" from="sc" to="37689" priority="-1" spreadType="center" shape="50.71,0.71 100.00,50.00 150.00,50.00" bidi="1555f-1-re">
        <lane id="1555f-1_0" index="0" allow="rail rail_electric" speed="110.00" length="119.71" shape="50.71,0.71 100.00,50.00 150.00,50.00"/>
    </edge>
    <edge id="1555f-1-re" from="37689" to="sc" priority="-1" spreadType="center" shape="150.00,50.00 100.00,50.00 50.71,0.71" bidi="1555f-1">
        <lane id="1555f-1-re_0" index="0" allow="rail rail_electric" speed="110.00" length="119.71" shape="150.00,50.00 100.00,50.00 50.71,0.71"/>
    </edge>
    <edge id="5554c-0" from="23e29" to="sb" priority="-1" spreadType="center" bidi="5554c-0-re">
        <lane id="5554c-0_0" index="0" allow="rail rail_electric" speed="110.00" length="1.00" shape="50.66,0.00 51.00,0.00"/>
    </edge>
    <edge id="5554c-0-re" from="sb" to="23e29" priority="-1" spreadType="center" bidi="5554c-0">
        <lane id="5554c-0-re_0" index="0" allow="rail rail_electric" speed="110.00" length="1.00" shape="51.00,0.00 50.66,0.00"/>
    </edge>
    <edge id="5554c-1" from="sb" to="6114e" priority="-1" spreadType="center" bidi="5554c-1-re">
        <lane id="5554c-1_0" index="0" allow="rail rail_electric" speed="110.00" length="99.00" shape="51.00,0.00 150.00,0.00"/>
    </edge>
    <edge id="5554c-1-re" from="6114e" to="sb" priority="-1" spreadType="center" bidi="5554c-1">
        <lane id="5554c-1-re_0" index="0" allow="rail rail_electric" speed="110.00" length="99.00" shape="150.00,0.00 51.00,0.00"/>
    </edge>

    <junction id="23e29" type="priority" x="50.00" y="0.00" incLanes="1555f-0-re_0 5554c-0-re_0 0014c-1_0" intLanes="" shape="48.87,1.13 51.13,-1.13 48.87,1.13 51.13,-1.13 50.00,1.60 50.00,-1.60 50.00,1.60 50.00,-1.60 50.00,1.60 50.00,-1.60 50.00,1.60">
        <request index="0" response="0010" foes="0010"/>
        <request index="1" response="0000" foes="1001"/>
        <request index="2" response="0000" foes="0000"/>
        <request index="3" response="0010" foes="0010"/>
    </junction>
    <junction id="2c928" type="priority" x="0.00" y="0.00" incLanes="0014c-0-re_0" intLanes="" shape="0.00,1.60 0.00,-1.60 0.00,1.60 0.00,-1.60">
        <request index="0" response="0" foes="0"/>
    </junction>
    <junction id="37689" type="priority" x="150.00" y="50.00" incLanes="1555f-1_0" intLanes="" shape="150.00,48.40 150.00,51.60 150.00,48.40 150.00,51.60">
        <request index="0" response="0" foes="0"/>
    </junction>
    <junction id="6114e" type="priority" x="150.00" y="0.00" incLanes="5554c-1_0" intLanes="" shape="150.00,-1.60 150.00,1.60 150.00,-1.60 150.00,1.60">
        <request index="0" response="0" foes="0"/>
    </junction>
    <junction id="sa" type="rail_signal" x="1.00" y="0.00" incLanes="0014c-1-re_0 0014c-0_0" intLanes="" shape="1.00,1.60 1.00,-1.60 1.00,1.60 1.00,-1.60 1.00,1.60 1.00,-1.60">
        <request index="0" response="00" foes="00"/>
        <request index="1" response="00" foes="00"/>
    </junction>
    <junction id="sb" type="rail_signal" x="51.00" y="0.00" incLanes="5554c-1-re_0 5554c-0_0" intLanes="" shape="51.00,1.60 51.00,-1.60 51.00,1.60 51.00,-1.60 51.00,1.60 51.00,-1.60">
        <request index="0" response="00" foes="00"/>
        <request index="1" response="00" foes="00"/>
    </junction>
    <junction id="sc" type="rail_signal" x="50.71" y="0.71" incLanes="1555f-1-re_0 1555f-0_0" intLanes="" shape="49.58,1.84 51.84,-0.42 49.58,1.84 51.84,-0.42 49.58,1.84 51.84,-0.42">
        <request index="0" response="00" foes="00"/>
        <request index="1" response="00" foes="00"/>
    </junction>

    <connection from="0014c-0" to="0014c-1" fromLane="0" toLane="0" tl="sa" linkIndex="1" dir="s" state="O"/>
    <connection from="0014c-0-re" to="0014c-0" fromLane="0" toLane="0" speed="0.10" dir="t" state="M"/>
    <connection from="0014c-1" to="5554c-0" fromLane="0" toLane="0" dir="s" state="M"/>
    <connection from="0014c-1" to="1555f-0" fromLane="0" toLane="0" dir="l" state="M"/>
    <connection from="0014c-1-re" to="0014c-0-re" fromLane="0" toLane="0" tl="sa" linkIndex="0" dir="s" state="O"/>
    <connection from="1555f-0" to="1555f-1" fromLane="0" toLane="0" tl="sc" linkIndex="1" dir="s" state="O"/>
    <connection from="1555f-0-re" to="0014c-1-re" fromLane="0" toLane="0" dir="r" state="M"/>
    <connection from="1555f-1" to="1555f-1-re" fromLane="0" toLane="0" speed="0.10" dir="t" state="M"/>
    <connection from="1555f-1-re" to="1555f-0-re" fromLane="0" toLane="0" tl="sc" linkIndex="0" dir="s" state="O"/>
    <connection from="5554c-0" to="5554c-1" fromLane="0" toLane="0" tl="sb" linkIndex="1" dir="s" state="O"/>
    <connection from="5554c-0-re" to="0014c-1-re" fromLane="0" toLane="0" dir="s" state="M"/>
    <connection from="5554c-1" to="5554c-1-re" fromLane="0" toLane="0" speed="0.10" dir="t" state="M"/>
    <connection from="5554c-1-re" to="5554c-0-re" fromLane="0" toLane="0" tl="sb" linkIndex="0" dir="s" state="O"/>

</net>
