<connections>



<!-- Point 23e29 12cb49ea-d8e1-4996-846c-66cec6923e29 -->
<connection from="1555f-0" to="0014c-1"/>
<connection from="1555f-0" to="0014c-1-re"/>
<connection from="1555f-0-re" to="0014c-1"/>
<connection from="1555f-0-re" to="0014c-1-re"/>
<connection from="5554c-0" to="0014c-1"/>
<connection from="5554c-0" to="0014c-1-re"/>
<connection from="5554c-0-re" to="0014c-1"/>
<connection from="5554c-0-re" to="0014c-1-re"/>
<connection from="0014c-1" to="1555f-0"/>
<connection from="0014c-1" to="5554c-0"/>
<connection from="0014c-1" to="1555f-0-re"/>
<connection from="0014c-1" to="5554c-0-re"/>
<connection from="0014c-1-re" to="1555f-0"/>
<connection from="0014c-1-re" to="5554c-0"/>
<connection from="0014c-1-re" to="1555f-0-re"/>
<connection from="0014c-1-re" to="5554c-0-re"/>
<!-- Signal sa 0c3c6d21-828a-4350-8210-e4ea1ab89759 -->
<connection from="0014c-0" to="0014c-1"/>
<connection from="0014c-0" to="0014c-1-re"/>
<connection from="0014c-0-re" to="0014c-1"/>
<connection from="0014c-0-re" to="0014c-1-re"/>
<connection from="0014c-1" to="0014c-0"/>
<connection from="0014c-1" to="0014c-0-re"/>
<connection from="0014c-1-re" to="0014c-0"/>
<connection from="0014c-1-re" to="0014c-0-re"/>
<!-- Signal sb de920224-06b4-4920-8285-c01b92742d7e -->
<connection from="5554c-0" to="5554c-1"/>
<connection from="5554c-0" to="5554c-1-re"/>
<connection from="5554c-0-re" to="5554c-1"/>
<connection from="5554c-0-re" to="5554c-1-re"/>
<connection from="5554c-1" to="5554c-0"/>
<connection from="5554c-1" to="5554c-0-re"/>
<connection from="5554c-1-re" to="5554c-0"/>
<connection from="5554c-1-re" to="5554c-0-re"/>
<!-- Signal sc 8312eb6f-3508-4189-8914-84c5f9fa532d -->
<connection from="1555f-0" to="1555f-1"/>
<connection from="1555f-0" to="1555f-1-re"/>
<connection from="1555f-0-re" to="1555f-1"/>
<connection from="1555f-0-re" to="1555f-1-re"/>
<connection from="1555f-1" to="1555f-0"/>
<connection from="1555f-1" to="1555f-0-re"/>
<connection from="1555f-1-re" to="1555f-0"/>
<connection from="1555f-1-re" to="1555f-0-re"/>
</connections>
